Network_data/Greensboro_GSO_urban_SH_BH/uhs5_1247/Master.dss
Clear

New Circuit.substation_uhs5_69 bus1=uhs5_69 pu=1.0 basekV=69.0 R1=1e-05 X1=1e-05 R0=1e-05 X0=1e-05

Redirect LineCodes.dss
Redirect uhs5_1247--udt159/LineCodes.dss
Redirect uhs5_1247--udt18558/LineCodes.dss
Redirect uhs5_1247--udt19869/LineCodes.dss
Redirect uhs5_1247--udt20368/LineCodes.dss
Redirect Lines.dss
Redirect uhs5_1247--udt159/Lines.dss
Redirect uhs5_1247--udt18558/Lines.dss
Redirect uhs5_1247--udt19869/Lines.dss
Redirect uhs5_1247--udt20368/Lines.dss
Redirect Transformers.dss
Redirect uhs5_1247--udt159/Transformers.dss
Redirect uhs5_1247--udt18558/Transformers.dss
Redirect uhs5_1247--udt19869/Transformers.dss
Redirect uhs5_1247--udt20368/Transformers.dss
Redirect Regulators.dss
Redirect LoadShapes.dss
Redirect uhs5_1247--udt159/Loads.dss
Redirect uhs5_1247--udt18558/Loads.dss
Redirect uhs5_1247--udt19869/Loads.dss
Redirect uhs5_1247--udt20368/Loads.dss
Redirect uhs5_1247--udt18558/Capacitors.dss
Redirect uhs5_1247--udt19869/Capacitors.dss
Redirect uhs5_1247--udt20368/Capacitors.dss
Redirect Storage.dss
Redirect uhs5_1247--udt159/Storage.dss
Redirect uhs5_1247--udt18558/Storage.dss
Redirect uhs5_1247--udt19869/Storage.dss
Redirect uhs5_1247--udt20368/Storage.dss
Redirect uhs5_1247--udt159/PVSystems.dss
Redirect uhs5_1247--udt18558/PVSystems.dss
Redirect uhs5_1247--udt19869/PVSystems.dss
Redirect uhs5_1247--udt20368/PVSystems.dss
new monitor.m1 element=Line.sb10_uhs5_1247_349 mode=0
new monitor.m2 element=Line.sb10_uhs5_1247_349 mode=1
new energymeter.m3 Line.sb10_uhs5_1247_349

Set Voltagebases=[0.12, 0.208, 0.24, 0.48, 7.2, 12.47, 69.0]

Calcvoltagebases

Buscoords Buscoords.dss
set maxcontroliter=50

Solve mode=yearly stepsize=15m number=35040
Export monitors m1
Plot monitor object= m1 channels=(7 9 11 )
Export monitors m2
Plot monitor object= m2 channels=(1 3 5 )
Plot Profile Phases=All
